*.SCALE METER
.subckt lvs_top NT2 NT4 NT6 NT7 NT8
XI1 NT4 NT7 NT8 NT6  nch_svt_mac L=0.003u nfin=1 ppitch=0 AS=2.52e-16 AD=2.52e-16 PS=9.6e-08 PD=9.6e-08 NRS=0 NRD=0 odind=1 gpocrdx=-0.00473086 gpocrdy=-1.5381e-05 dfm_flag=1 sodyt=3e-06 sodyb=3e-06 smbt=1000000 smbb=1000000 mbetflag=0 mbebflag=0 sa=4.2e-08 sb=4.2e-08 soda=4.5e-08 sodb=4.5e-08 spotl3=7.1e-08 spotl2=7.1e-08 spotl1=7.1e-08 spot=7.1e-08 spotr1=7.1e-08 spotr2=1.685e-07 spotr3=7.1e-08 spobl3=1.5e-08 spobl2=1.5e-08 spobl1=1.5e-08 spob=1.5e-08 spobr1=1.5e-08 spobr2=3.05e-08 spobr3=1.5e-08 lcpotl=0 lcpobl=0 lcpotr=0 lcpobr=0 poletflag=0 polebflag=0 scpodea1=4.2e-08 scpodea2=2e-06 scpodeb1=4.2e-08 scpodeb2=1.076e-06 snpba1=4.5e-08 snpba2=2000000 snpbb1=4.5e-08 snpbb2=2000000 matchingflag=0 edgeflag=0 total=1 
XI2 NT6 NT7 NT2 NT8  pch_svt_mac L=0.003u nfin=1 ppitch=0 AS=2.52e-16 AD=2.52e-16 PS=9.6e-08 PD=9.6e-08 NRS=0 NRD=0 odind=2 gpocrdx=-0.00469222 gpocrdy=-1.5381e-05 dfm_flag=1 sodyt=3e-06 sodyb=3e-06 smbt=1000000 smbb=1000000 mbetflag=0 mbebflag=0 sa=4.2e-08 sb=4.2e-08 soda=4.5e-08 sodb=4.5e-08 spotl3=7.1e-08 spotl2=7.1e-08 spotl1=7.1e-08 spot=7.1e-08 spotr1=7.1e-08 spotr2=1.685e-07 spotr3=7.1e-08 spobl3=1.5e-08 spobl2=1.5e-08 spobl1=1.5e-08 spob=1.5e-08 spobr1=1.5e-08 spobr2=3.05e-08 spobr3=1.5e-08 lcpotl=0 lcpobl=0 lcpotr=0 lcpobr=0 poletflag=0 polebflag=0 scpodea1=4.2e-08 scpodea2=2e-06 scpodeb1=4.2e-08 scpodeb2=1.076e-06 snpba1=4.5e-08 snpba2=2000000 snpbb1=4.5e-08 snpbb2=2000000 matchingflag=0 edgeflag=0 total=1 
.ends

